/*--------------------------------*- C++ -*----------------------------------*\
| =========                 |                                                 |
| \\      /  F ield         | OpenFOAM: The Open Source CFD Toolbox           |
|  \\    /   O peration     | Version:  1.6                                   |
|   \\  /    A nd           | Web:      www.OpenFOAM.org                      |
|    \\/     M anipulation  |                                                 |
\*---------------------------------------------------------------------------*/
FoamFile
{
    version     2.0;
    format      ascii;
    class       dictionary;
    location    "system";
    object      controlDict;
}
// * * * * * * * * * * * * * * * * * * * * * * * * * * * * * * * * * * * * * //

application     twoLiquidMixingNonNewtonianFoam;

startFrom       latestTime;

startTime       0;

stopAt          endTime;

endTime         1.1;

deltaT          1e-4;

writeControl    adjustableRunTime;

writeInterval   0.1;

purgeWrite      0;

writeFormat     ascii;

writePrecision  6;

writeCompression compressed;

timeFormat      general;

timePrecision   10;

runTimeModifiable yes;

adjustTimeStep  yes;

maxCo           0.9;
maxAlphaCo		0.9;

maxDeltaT       1e-2;

libs            ( 
		//"libOpenFOAM.so"
		"libsimpleSwakFunctionObjects.so"
		"libswakFunctionObjects.so"
		"libgroovyBC.so"
		);

InfoSwitches
(
	allowSystemOperations 1;
);

// ************************************************************************* //
